*SPEF "ieee 1481-1999"
*DESIGN "seq_detector_mealy"
*DATE "16:11:35 Tuesday May 06, 2025"
*VENDOR "The OpenROAD Project"
*PROGRAM "OpenROAD"
*VERSION "b16bda7e82721d10566ff7e2b68f1ff0be9f9e38"
*DESIGN_FLOW "NAME_SCOPE LOCAL" "PIN_CAP NONE"
*DIVIDER /
*DELIMITER :
*BUS_DELIMITER []
*T_UNIT 1 NS
*C_UNIT 1 PF
*R_UNIT 1 OHM
*L_UNIT 1 HENRY

*NAME_MAP
*3 clk
*4 din
*5 dout
*6 reset
*7 _00_
*8 _01_
*9 _02_
*10 _03_
*11 _04_
*12 _05_
*13 clknet_0_clk
*14 clknet_1_0__leaf_clk
*15 clknet_1_1__leaf_clk
*16 net1
*17 net2
*18 net3
*19 net4
*20 net5
*21 net6
*22 next_state\[0\]
*23 next_state\[1\]
*24 state\[0\]
*25 state\[1\]
*26 FILLER_0_0_109
*27 FILLER_0_0_113
*28 FILLER_0_0_125
*29 FILLER_0_0_137
*30 FILLER_0_0_141
*31 FILLER_0_0_15
*32 FILLER_0_0_153
*33 FILLER_0_0_165
*34 FILLER_0_0_169
*35 FILLER_0_0_181
*36 FILLER_0_0_189
*37 FILLER_0_0_27
*38 FILLER_0_0_29
*39 FILLER_0_0_3
*40 FILLER_0_0_41
*41 FILLER_0_0_53
*42 FILLER_0_0_57
*43 FILLER_0_0_69
*44 FILLER_0_0_81
*45 FILLER_0_0_85
*46 FILLER_0_0_93
*47 FILLER_0_0_97
*48 FILLER_0_10_109
*49 FILLER_0_10_121
*50 FILLER_0_10_133
*51 FILLER_0_10_139
*52 FILLER_0_10_141
*53 FILLER_0_10_15
*54 FILLER_0_10_153
*55 FILLER_0_10_165
*56 FILLER_0_10_177
*57 FILLER_0_10_189
*58 FILLER_0_10_27
*59 FILLER_0_10_29
*60 FILLER_0_10_3
*61 FILLER_0_10_41
*62 FILLER_0_10_53
*63 FILLER_0_10_65
*64 FILLER_0_10_77
*65 FILLER_0_10_83
*66 FILLER_0_10_85
*67 FILLER_0_10_97
*68 FILLER_0_11_109
*69 FILLER_0_11_113
*70 FILLER_0_11_125
*71 FILLER_0_11_137
*72 FILLER_0_11_149
*73 FILLER_0_11_15
*74 FILLER_0_11_161
*75 FILLER_0_11_167
*76 FILLER_0_11_169
*77 FILLER_0_11_181
*78 FILLER_0_11_189
*79 FILLER_0_11_27
*80 FILLER_0_11_3
*81 FILLER_0_11_39
*82 FILLER_0_11_51
*83 FILLER_0_11_55
*84 FILLER_0_11_57
*85 FILLER_0_11_69
*86 FILLER_0_11_73
*87 FILLER_0_11_97
*88 FILLER_0_12_112
*89 FILLER_0_12_124
*90 FILLER_0_12_136
*91 FILLER_0_12_141
*92 FILLER_0_12_15
*93 FILLER_0_12_153
*94 FILLER_0_12_165
*95 FILLER_0_12_177
*96 FILLER_0_12_189
*97 FILLER_0_12_27
*98 FILLER_0_12_29
*99 FILLER_0_12_3
*100 FILLER_0_12_41
*101 FILLER_0_12_53
*102 FILLER_0_12_65
*103 FILLER_0_12_77
*104 FILLER_0_12_83
*105 FILLER_0_13_120
*106 FILLER_0_13_132
*107 FILLER_0_13_144
*108 FILLER_0_13_15
*109 FILLER_0_13_156
*110 FILLER_0_13_169
*111 FILLER_0_13_181
*112 FILLER_0_13_189
*113 FILLER_0_13_27
*114 FILLER_0_13_3
*115 FILLER_0_13_39
*116 FILLER_0_13_51
*117 FILLER_0_13_55
*118 FILLER_0_13_57
*119 FILLER_0_13_69
*120 FILLER_0_13_81
*121 FILLER_0_14_105
*122 FILLER_0_14_128
*123 FILLER_0_14_141
*124 FILLER_0_14_15
*125 FILLER_0_14_153
*126 FILLER_0_14_165
*127 FILLER_0_14_177
*128 FILLER_0_14_185
*129 FILLER_0_14_27
*130 FILLER_0_14_29
*131 FILLER_0_14_3
*132 FILLER_0_14_41
*133 FILLER_0_14_53
*134 FILLER_0_14_65
*135 FILLER_0_14_77
*136 FILLER_0_15_113
*137 FILLER_0_15_125
*138 FILLER_0_15_137
*139 FILLER_0_15_149
*140 FILLER_0_15_15
*141 FILLER_0_15_161
*142 FILLER_0_15_167
*143 FILLER_0_15_169
*144 FILLER_0_15_181
*145 FILLER_0_15_185
*146 FILLER_0_15_27
*147 FILLER_0_15_3
*148 FILLER_0_15_39
*149 FILLER_0_15_51
*150 FILLER_0_15_55
*151 FILLER_0_15_57
*152 FILLER_0_15_69
*153 FILLER_0_15_81
*154 FILLER_0_15_87
*155 FILLER_0_15_99
*156 FILLER_0_16_109
*157 FILLER_0_16_121
*158 FILLER_0_16_133
*159 FILLER_0_16_139
*160 FILLER_0_16_141
*161 FILLER_0_16_15
*162 FILLER_0_16_153
*163 FILLER_0_16_165
*164 FILLER_0_16_177
*165 FILLER_0_16_189
*166 FILLER_0_16_27
*167 FILLER_0_16_29
*168 FILLER_0_16_3
*169 FILLER_0_16_41
*170 FILLER_0_16_53
*171 FILLER_0_16_65
*172 FILLER_0_16_77
*173 FILLER_0_16_83
*174 FILLER_0_16_85
*175 FILLER_0_16_97
*176 FILLER_0_17_113
*177 FILLER_0_17_125
*178 FILLER_0_17_137
*179 FILLER_0_17_149
*180 FILLER_0_17_15
*181 FILLER_0_17_161
*182 FILLER_0_17_167
*183 FILLER_0_17_169
*184 FILLER_0_17_181
*185 FILLER_0_17_189
*186 FILLER_0_17_27
*187 FILLER_0_17_3
*188 FILLER_0_17_39
*189 FILLER_0_17_51
*190 FILLER_0_17_55
*191 FILLER_0_17_57
*192 FILLER_0_17_69
*193 FILLER_0_17_81
*194 FILLER_0_17_89
*195 FILLER_0_18_109
*196 FILLER_0_18_121
*197 FILLER_0_18_133
*198 FILLER_0_18_139
*199 FILLER_0_18_141
*200 FILLER_0_18_15
*201 FILLER_0_18_153
*202 FILLER_0_18_165
*203 FILLER_0_18_177
*204 FILLER_0_18_189
*205 FILLER_0_18_27
*206 FILLER_0_18_29
*207 FILLER_0_18_3
*208 FILLER_0_18_41
*209 FILLER_0_18_53
*210 FILLER_0_18_65
*211 FILLER_0_18_77
*212 FILLER_0_18_83
*213 FILLER_0_18_85
*214 FILLER_0_18_97
*215 FILLER_0_19_105
*216 FILLER_0_19_111
*217 FILLER_0_19_113
*218 FILLER_0_19_125
*219 FILLER_0_19_137
*220 FILLER_0_19_149
*221 FILLER_0_19_15
*222 FILLER_0_19_161
*223 FILLER_0_19_167
*224 FILLER_0_19_169
*225 FILLER_0_19_181
*226 FILLER_0_19_189
*227 FILLER_0_19_27
*228 FILLER_0_19_3
*229 FILLER_0_19_39
*230 FILLER_0_19_51
*231 FILLER_0_19_55
*232 FILLER_0_19_57
*233 FILLER_0_19_69
*234 FILLER_0_19_81
*235 FILLER_0_19_93
*236 FILLER_0_1_105
*237 FILLER_0_1_111
*238 FILLER_0_1_113
*239 FILLER_0_1_125
*240 FILLER_0_1_137
*241 FILLER_0_1_149
*242 FILLER_0_1_15
*243 FILLER_0_1_161
*244 FILLER_0_1_167
*245 FILLER_0_1_169
*246 FILLER_0_1_181
*247 FILLER_0_1_189
*248 FILLER_0_1_27
*249 FILLER_0_1_3
*250 FILLER_0_1_39
*251 FILLER_0_1_51
*252 FILLER_0_1_55
*253 FILLER_0_1_57
*254 FILLER_0_1_69
*255 FILLER_0_1_81
*256 FILLER_0_1_93
*257 FILLER_0_20_109
*258 FILLER_0_20_121
*259 FILLER_0_20_133
*260 FILLER_0_20_139
*261 FILLER_0_20_141
*262 FILLER_0_20_15
*263 FILLER_0_20_153
*264 FILLER_0_20_165
*265 FILLER_0_20_177
*266 FILLER_0_20_189
*267 FILLER_0_20_27
*268 FILLER_0_20_29
*269 FILLER_0_20_3
*270 FILLER_0_20_41
*271 FILLER_0_20_53
*272 FILLER_0_20_65
*273 FILLER_0_20_77
*274 FILLER_0_20_83
*275 FILLER_0_20_85
*276 FILLER_0_20_97
*277 FILLER_0_21_105
*278 FILLER_0_21_111
*279 FILLER_0_21_113
*280 FILLER_0_21_125
*281 FILLER_0_21_137
*282 FILLER_0_21_149
*283 FILLER_0_21_15
*284 FILLER_0_21_161
*285 FILLER_0_21_167
*286 FILLER_0_21_169
*287 FILLER_0_21_181
*288 FILLER_0_21_189
*289 FILLER_0_21_27
*290 FILLER_0_21_3
*291 FILLER_0_21_39
*292 FILLER_0_21_51
*293 FILLER_0_21_55
*294 FILLER_0_21_57
*295 FILLER_0_21_69
*296 FILLER_0_21_81
*297 FILLER_0_21_93
*298 FILLER_0_22_109
*299 FILLER_0_22_121
*300 FILLER_0_22_133
*301 FILLER_0_22_139
*302 FILLER_0_22_141
*303 FILLER_0_22_15
*304 FILLER_0_22_153
*305 FILLER_0_22_165
*306 FILLER_0_22_177
*307 FILLER_0_22_189
*308 FILLER_0_22_27
*309 FILLER_0_22_29
*310 FILLER_0_22_3
*311 FILLER_0_22_41
*312 FILLER_0_22_53
*313 FILLER_0_22_65
*314 FILLER_0_22_77
*315 FILLER_0_22_83
*316 FILLER_0_22_85
*317 FILLER_0_22_97
*318 FILLER_0_23_105
*319 FILLER_0_23_111
*320 FILLER_0_23_113
*321 FILLER_0_23_125
*322 FILLER_0_23_137
*323 FILLER_0_23_149
*324 FILLER_0_23_15
*325 FILLER_0_23_161
*326 FILLER_0_23_167
*327 FILLER_0_23_169
*328 FILLER_0_23_181
*329 FILLER_0_23_189
*330 FILLER_0_23_27
*331 FILLER_0_23_3
*332 FILLER_0_23_39
*333 FILLER_0_23_51
*334 FILLER_0_23_55
*335 FILLER_0_23_57
*336 FILLER_0_23_69
*337 FILLER_0_23_81
*338 FILLER_0_23_93
*339 FILLER_0_24_109
*340 FILLER_0_24_121
*341 FILLER_0_24_133
*342 FILLER_0_24_139
*343 FILLER_0_24_141
*344 FILLER_0_24_15
*345 FILLER_0_24_153
*346 FILLER_0_24_165
*347 FILLER_0_24_177
*348 FILLER_0_24_189
*349 FILLER_0_24_27
*350 FILLER_0_24_29
*351 FILLER_0_24_3
*352 FILLER_0_24_41
*353 FILLER_0_24_53
*354 FILLER_0_24_65
*355 FILLER_0_24_77
*356 FILLER_0_24_83
*357 FILLER_0_24_85
*358 FILLER_0_24_97
*359 FILLER_0_25_105
*360 FILLER_0_25_111
*361 FILLER_0_25_113
*362 FILLER_0_25_125
*363 FILLER_0_25_137
*364 FILLER_0_25_149
*365 FILLER_0_25_15
*366 FILLER_0_25_161
*367 FILLER_0_25_167
*368 FILLER_0_25_169
*369 FILLER_0_25_181
*370 FILLER_0_25_189
*371 FILLER_0_25_27
*372 FILLER_0_25_3
*373 FILLER_0_25_39
*374 FILLER_0_25_51
*375 FILLER_0_25_55
*376 FILLER_0_25_57
*377 FILLER_0_25_69
*378 FILLER_0_25_81
*379 FILLER_0_25_93
*380 FILLER_0_26_109
*381 FILLER_0_26_121
*382 FILLER_0_26_133
*383 FILLER_0_26_139
*384 FILLER_0_26_141
*385 FILLER_0_26_15
*386 FILLER_0_26_153
*387 FILLER_0_26_165
*388 FILLER_0_26_177
*389 FILLER_0_26_189
*390 FILLER_0_26_27
*391 FILLER_0_26_29
*392 FILLER_0_26_3
*393 FILLER_0_26_41
*394 FILLER_0_26_53
*395 FILLER_0_26_65
*396 FILLER_0_26_77
*397 FILLER_0_26_83
*398 FILLER_0_26_85
*399 FILLER_0_26_97
*400 FILLER_0_27_109
*401 FILLER_0_27_113
*402 FILLER_0_27_125
*403 FILLER_0_27_137
*404 FILLER_0_27_141
*405 FILLER_0_27_15
*406 FILLER_0_27_153
*407 FILLER_0_27_165
*408 FILLER_0_27_169
*409 FILLER_0_27_181
*410 FILLER_0_27_189
*411 FILLER_0_27_27
*412 FILLER_0_27_29
*413 FILLER_0_27_3
*414 FILLER_0_27_41
*415 FILLER_0_27_53
*416 FILLER_0_27_57
*417 FILLER_0_27_69
*418 FILLER_0_27_81
*419 FILLER_0_27_85
*420 FILLER_0_27_97
*421 FILLER_0_2_109
*422 FILLER_0_2_121
*423 FILLER_0_2_133
*424 FILLER_0_2_139
*425 FILLER_0_2_141
*426 FILLER_0_2_15
*427 FILLER_0_2_153
*428 FILLER_0_2_165
*429 FILLER_0_2_177
*430 FILLER_0_2_189
*431 FILLER_0_2_27
*432 FILLER_0_2_29
*433 FILLER_0_2_3
*434 FILLER_0_2_41
*435 FILLER_0_2_53
*436 FILLER_0_2_65
*437 FILLER_0_2_77
*438 FILLER_0_2_83
*439 FILLER_0_2_85
*440 FILLER_0_2_97
*441 FILLER_0_3_105
*442 FILLER_0_3_111
*443 FILLER_0_3_113
*444 FILLER_0_3_125
*445 FILLER_0_3_137
*446 FILLER_0_3_149
*447 FILLER_0_3_15
*448 FILLER_0_3_161
*449 FILLER_0_3_167
*450 FILLER_0_3_169
*451 FILLER_0_3_181
*452 FILLER_0_3_189
*453 FILLER_0_3_27
*454 FILLER_0_3_3
*455 FILLER_0_3_39
*456 FILLER_0_3_51
*457 FILLER_0_3_55
*458 FILLER_0_3_57
*459 FILLER_0_3_69
*460 FILLER_0_3_81
*461 FILLER_0_3_93
*462 FILLER_0_4_109
*463 FILLER_0_4_121
*464 FILLER_0_4_133
*465 FILLER_0_4_139
*466 FILLER_0_4_141
*467 FILLER_0_4_15
*468 FILLER_0_4_153
*469 FILLER_0_4_165
*470 FILLER_0_4_177
*471 FILLER_0_4_189
*472 FILLER_0_4_27
*473 FILLER_0_4_29
*474 FILLER_0_4_3
*475 FILLER_0_4_41
*476 FILLER_0_4_53
*477 FILLER_0_4_65
*478 FILLER_0_4_77
*479 FILLER_0_4_83
*480 FILLER_0_4_85
*481 FILLER_0_4_97
*482 FILLER_0_5_105
*483 FILLER_0_5_111
*484 FILLER_0_5_113
*485 FILLER_0_5_125
*486 FILLER_0_5_137
*487 FILLER_0_5_149
*488 FILLER_0_5_15
*489 FILLER_0_5_161
*490 FILLER_0_5_167
*491 FILLER_0_5_169
*492 FILLER_0_5_181
*493 FILLER_0_5_189
*494 FILLER_0_5_27
*495 FILLER_0_5_3
*496 FILLER_0_5_39
*497 FILLER_0_5_51
*498 FILLER_0_5_55
*499 FILLER_0_5_57
*500 FILLER_0_5_69
*501 FILLER_0_5_81
*502 FILLER_0_5_93
*503 FILLER_0_6_109
*504 FILLER_0_6_121
*505 FILLER_0_6_133
*506 FILLER_0_6_139
*507 FILLER_0_6_141
*508 FILLER_0_6_15
*509 FILLER_0_6_153
*510 FILLER_0_6_165
*511 FILLER_0_6_177
*512 FILLER_0_6_189
*513 FILLER_0_6_27
*514 FILLER_0_6_29
*515 FILLER_0_6_3
*516 FILLER_0_6_41
*517 FILLER_0_6_53
*518 FILLER_0_6_65
*519 FILLER_0_6_77
*520 FILLER_0_6_83
*521 FILLER_0_6_85
*522 FILLER_0_6_97
*523 FILLER_0_7_105
*524 FILLER_0_7_111
*525 FILLER_0_7_113
*526 FILLER_0_7_125
*527 FILLER_0_7_137
*528 FILLER_0_7_149
*529 FILLER_0_7_15
*530 FILLER_0_7_161
*531 FILLER_0_7_167
*532 FILLER_0_7_169
*533 FILLER_0_7_181
*534 FILLER_0_7_189
*535 FILLER_0_7_27
*536 FILLER_0_7_3
*537 FILLER_0_7_39
*538 FILLER_0_7_51
*539 FILLER_0_7_55
*540 FILLER_0_7_57
*541 FILLER_0_7_69
*542 FILLER_0_7_81
*543 FILLER_0_7_93
*544 FILLER_0_8_109
*545 FILLER_0_8_121
*546 FILLER_0_8_133
*547 FILLER_0_8_139
*548 FILLER_0_8_141
*549 FILLER_0_8_15
*550 FILLER_0_8_153
*551 FILLER_0_8_165
*552 FILLER_0_8_177
*553 FILLER_0_8_189
*554 FILLER_0_8_27
*555 FILLER_0_8_29
*556 FILLER_0_8_3
*557 FILLER_0_8_41
*558 FILLER_0_8_53
*559 FILLER_0_8_65
*560 FILLER_0_8_77
*561 FILLER_0_8_83
*562 FILLER_0_8_85
*563 FILLER_0_8_97
*564 FILLER_0_9_105
*565 FILLER_0_9_111
*566 FILLER_0_9_113
*567 FILLER_0_9_125
*568 FILLER_0_9_137
*569 FILLER_0_9_149
*570 FILLER_0_9_15
*571 FILLER_0_9_161
*572 FILLER_0_9_167
*573 FILLER_0_9_169
*574 FILLER_0_9_181
*575 FILLER_0_9_189
*576 FILLER_0_9_27
*577 FILLER_0_9_3
*578 FILLER_0_9_39
*579 FILLER_0_9_51
*580 FILLER_0_9_55
*581 FILLER_0_9_57
*582 FILLER_0_9_69
*583 FILLER_0_9_81
*584 FILLER_0_9_93
*585 PHY_EDGE_ROW_0_Left_28
*586 PHY_EDGE_ROW_0_Right_0
*587 PHY_EDGE_ROW_10_Left_38
*588 PHY_EDGE_ROW_10_Right_10
*589 PHY_EDGE_ROW_11_Left_39
*590 PHY_EDGE_ROW_11_Right_11
*591 PHY_EDGE_ROW_12_Left_40
*592 PHY_EDGE_ROW_12_Right_12
*593 PHY_EDGE_ROW_13_Left_41
*594 PHY_EDGE_ROW_13_Right_13
*595 PHY_EDGE_ROW_14_Left_42
*596 PHY_EDGE_ROW_14_Right_14
*597 PHY_EDGE_ROW_15_Left_43
*598 PHY_EDGE_ROW_15_Right_15
*599 PHY_EDGE_ROW_16_Left_44
*600 PHY_EDGE_ROW_16_Right_16
*601 PHY_EDGE_ROW_17_Left_45
*602 PHY_EDGE_ROW_17_Right_17
*603 PHY_EDGE_ROW_18_Left_46
*604 PHY_EDGE_ROW_18_Right_18
*605 PHY_EDGE_ROW_19_Left_47
*606 PHY_EDGE_ROW_19_Right_19
*607 PHY_EDGE_ROW_1_Left_29
*608 PHY_EDGE_ROW_1_Right_1
*609 PHY_EDGE_ROW_20_Left_48
*610 PHY_EDGE_ROW_20_Right_20
*611 PHY_EDGE_ROW_21_Left_49
*612 PHY_EDGE_ROW_21_Right_21
*613 PHY_EDGE_ROW_22_Left_50
*614 PHY_EDGE_ROW_22_Right_22
*615 PHY_EDGE_ROW_23_Left_51
*616 PHY_EDGE_ROW_23_Right_23
*617 PHY_EDGE_ROW_24_Left_52
*618 PHY_EDGE_ROW_24_Right_24
*619 PHY_EDGE_ROW_25_Left_53
*620 PHY_EDGE_ROW_25_Right_25
*621 PHY_EDGE_ROW_26_Left_54
*622 PHY_EDGE_ROW_26_Right_26
*623 PHY_EDGE_ROW_27_Left_55
*624 PHY_EDGE_ROW_27_Right_27
*625 PHY_EDGE_ROW_2_Left_30
*626 PHY_EDGE_ROW_2_Right_2
*627 PHY_EDGE_ROW_3_Left_31
*628 PHY_EDGE_ROW_3_Right_3
*629 PHY_EDGE_ROW_4_Left_32
*630 PHY_EDGE_ROW_4_Right_4
*631 PHY_EDGE_ROW_5_Left_33
*632 PHY_EDGE_ROW_5_Right_5
*633 PHY_EDGE_ROW_6_Left_34
*634 PHY_EDGE_ROW_6_Right_6
*635 PHY_EDGE_ROW_7_Left_35
*636 PHY_EDGE_ROW_7_Right_7
*637 PHY_EDGE_ROW_8_Left_36
*638 PHY_EDGE_ROW_8_Right_8
*639 PHY_EDGE_ROW_9_Left_37
*640 PHY_EDGE_ROW_9_Right_9
*641 TAP_TAPCELL_ROW_0_56
*642 TAP_TAPCELL_ROW_0_57
*643 TAP_TAPCELL_ROW_0_58
*644 TAP_TAPCELL_ROW_0_59
*645 TAP_TAPCELL_ROW_0_60
*646 TAP_TAPCELL_ROW_0_61
*647 TAP_TAPCELL_ROW_10_89
*648 TAP_TAPCELL_ROW_10_90
*649 TAP_TAPCELL_ROW_10_91
*650 TAP_TAPCELL_ROW_11_92
*651 TAP_TAPCELL_ROW_11_93
*652 TAP_TAPCELL_ROW_11_94
*653 TAP_TAPCELL_ROW_12_95
*654 TAP_TAPCELL_ROW_12_96
*655 TAP_TAPCELL_ROW_12_97
*656 TAP_TAPCELL_ROW_13_100
*657 TAP_TAPCELL_ROW_13_98
*658 TAP_TAPCELL_ROW_13_99
*659 TAP_TAPCELL_ROW_14_101
*660 TAP_TAPCELL_ROW_14_102
*661 TAP_TAPCELL_ROW_14_103
*662 TAP_TAPCELL_ROW_15_104
*663 TAP_TAPCELL_ROW_15_105
*664 TAP_TAPCELL_ROW_15_106
*665 TAP_TAPCELL_ROW_16_107
*666 TAP_TAPCELL_ROW_16_108
*667 TAP_TAPCELL_ROW_16_109
*668 TAP_TAPCELL_ROW_17_110
*669 TAP_TAPCELL_ROW_17_111
*670 TAP_TAPCELL_ROW_17_112
*671 TAP_TAPCELL_ROW_18_113
*672 TAP_TAPCELL_ROW_18_114
*673 TAP_TAPCELL_ROW_18_115
*674 TAP_TAPCELL_ROW_19_116
*675 TAP_TAPCELL_ROW_19_117
*676 TAP_TAPCELL_ROW_19_118
*677 TAP_TAPCELL_ROW_1_62
*678 TAP_TAPCELL_ROW_1_63
*679 TAP_TAPCELL_ROW_1_64
*680 TAP_TAPCELL_ROW_20_119
*681 TAP_TAPCELL_ROW_20_120
*682 TAP_TAPCELL_ROW_20_121
*683 TAP_TAPCELL_ROW_21_122
*684 TAP_TAPCELL_ROW_21_123
*685 TAP_TAPCELL_ROW_21_124
*686 TAP_TAPCELL_ROW_22_125
*687 TAP_TAPCELL_ROW_22_126
*688 TAP_TAPCELL_ROW_22_127
*689 TAP_TAPCELL_ROW_23_128
*690 TAP_TAPCELL_ROW_23_129
*691 TAP_TAPCELL_ROW_23_130
*692 TAP_TAPCELL_ROW_24_131
*693 TAP_TAPCELL_ROW_24_132
*694 TAP_TAPCELL_ROW_24_133
*695 TAP_TAPCELL_ROW_25_134
*696 TAP_TAPCELL_ROW_25_135
*697 TAP_TAPCELL_ROW_25_136
*698 TAP_TAPCELL_ROW_26_137
*699 TAP_TAPCELL_ROW_26_138
*700 TAP_TAPCELL_ROW_26_139
*701 TAP_TAPCELL_ROW_27_140
*702 TAP_TAPCELL_ROW_27_141
*703 TAP_TAPCELL_ROW_27_142
*704 TAP_TAPCELL_ROW_27_143
*705 TAP_TAPCELL_ROW_27_144
*706 TAP_TAPCELL_ROW_27_145
*707 TAP_TAPCELL_ROW_2_65
*708 TAP_TAPCELL_ROW_2_66
*709 TAP_TAPCELL_ROW_2_67
*710 TAP_TAPCELL_ROW_3_68
*711 TAP_TAPCELL_ROW_3_69
*712 TAP_TAPCELL_ROW_3_70
*713 TAP_TAPCELL_ROW_4_71
*714 TAP_TAPCELL_ROW_4_72
*715 TAP_TAPCELL_ROW_4_73
*716 TAP_TAPCELL_ROW_5_74
*717 TAP_TAPCELL_ROW_5_75
*718 TAP_TAPCELL_ROW_5_76
*719 TAP_TAPCELL_ROW_6_77
*720 TAP_TAPCELL_ROW_6_78
*721 TAP_TAPCELL_ROW_6_79
*722 TAP_TAPCELL_ROW_7_80
*723 TAP_TAPCELL_ROW_7_81
*724 TAP_TAPCELL_ROW_7_82
*725 TAP_TAPCELL_ROW_8_83
*726 TAP_TAPCELL_ROW_8_84
*727 TAP_TAPCELL_ROW_8_85
*728 TAP_TAPCELL_ROW_9_86
*729 TAP_TAPCELL_ROW_9_87
*730 TAP_TAPCELL_ROW_9_88
*731 _06_
*732 _07_
*733 _08_
*734 _09_
*735 _10_
*736 _11_
*737 _12_
*738 _13_
*739 _14_
*740 _15_
*741 _16_
*742 clkbuf_0_clk
*743 clkbuf_1_0__f_clk
*744 clkbuf_1_1__f_clk
*745 hold1
*746 hold2
*747 hold3
*748 input1
*749 input2
*750 output3

*PORTS
clk I
din I
dout O
reset I

*D_NET *3 0.00471702
*CONN
*P clk I
*I *742:A I *D sky130_fd_sc_hd__clkbuf_16
*CAP
1 clk 0.00235851
2 *742:A 0.00235851
*RES
1 clk *742:A 23.9603 
*END

*D_NET *4 0.000686883
*CONN
*P din I
*I *748:A I *D sky130_fd_sc_hd__buf_1
*CAP
1 din 0.000297004
2 *748:A 0.000297004
3 *748:A dout 9.28756e-05
*RES
1 din *748:A 20.0163 
*END

*D_NET *5 0.000601038
*CONN
*P dout O
*I *750:X O *D sky130_fd_sc_hd__buf_2
*CAP
1 dout 0.000254081
2 *750:X 0.000254081
3 *748:A dout 9.28756e-05
*RES
1 *750:X dout 18.8741 
*END

*D_NET *6 0.00084331
*CONN
*P reset I
*I *749:A I *D sky130_fd_sc_hd__buf_1
*CAP
1 reset 0.000421655
2 *749:A 0.000421655
*RES
1 reset *749:A 21.8357 
*END

*D_NET *7 0.000733277
*CONN
*I *740:RESET_B I *D sky130_fd_sc_hd__dfrtp_1
*I *738:Y O *D sky130_fd_sc_hd__inv_2
*CAP
1 *740:RESET_B 8.92961e-05
2 *738:Y 8.92961e-05
3 *740:RESET_B *735:A2 1.74352e-05
4 *740:RESET_B *738:A 0.000263214
5 *740:RESET_B *24:10 0.000274036
*RES
1 *738:Y *740:RESET_B 13.0589 
*END

*D_NET *8 0.00118457
*CONN
*I *741:RESET_B I *D sky130_fd_sc_hd__dfrtp_1
*I *739:Y O *D sky130_fd_sc_hd__inv_2
*CAP
1 *741:RESET_B 0.000409424
2 *739:Y 0.000409424
3 *741:RESET_B *740:CLK 0
4 *741:RESET_B *740:D 0.000186932
5 *741:RESET_B *743:A 0.000108002
6 *741:RESET_B *744:A 7.07908e-05
*RES
1 *739:Y *741:RESET_B 26.675 
*END

*D_NET *9 0.00029985
*CONN
*I *732:A I *D sky130_fd_sc_hd__clkbuf_1
*I *731:X O *D sky130_fd_sc_hd__clkbuf_1
*CAP
1 *732:A 0.000149925
2 *731:X 0.000149925
3 *732:A *740:D 0
4 *732:A *744:A 0
*RES
1 *731:X *732:A 30.0821 
*END

*D_NET *10 0.00110721
*CONN
*I *735:A2 I *D sky130_fd_sc_hd__o21ai_1
*I *733:Y O *D sky130_fd_sc_hd__inv_2
*CAP
1 *735:A2 0.000395661
2 *733:Y 0.000395661
3 *735:A2 *733:A 0
4 *735:A2 *734:B 6.42338e-05
5 *735:A2 *735:B1 0.00014759
6 *735:A2 *738:A 8.66299e-05
7 *735:A2 *745:A 0
8 *735:A2 *24:10 0
9 *735:A2 *24:19 0
10 *740:RESET_B *735:A2 1.74352e-05
*RES
1 *733:Y *735:A2 35.5643 
*END

*D_NET *11 0.000128014
*CONN
*I *746:A I *D sky130_fd_sc_hd__dlygate4sd3_1
*I *734:Y O *D sky130_fd_sc_hd__nand3b_1
*CAP
1 *746:A 7.41148e-06
2 *734:Y 7.41148e-06
3 *746:A *734:A_N 5.65955e-05
4 *746:A *734:B 5.65955e-05
*RES
1 *734:Y *746:A 19.1357 
*END

*D_NET *12 0.000732202
*CONN
*I *737:A I *D sky130_fd_sc_hd__clkbuf_1
*I *736:X O *D sky130_fd_sc_hd__and3b_1
*CAP
1 *737:A 0.000300634
2 *736:X 0.000300634
3 *737:A *16:29 0.000130934
4 *737:A *24:10 0
*RES
1 *736:X *737:A 33.0464 
*END

*D_NET *13 0.00215559
*CONN
*I *744:A I *D sky130_fd_sc_hd__clkbuf_16
*I *743:A I *D sky130_fd_sc_hd__clkbuf_16
*I *742:X O *D sky130_fd_sc_hd__clkbuf_16
*CAP
1 *744:A 0.00056892
2 *743:A 0.000227949
3 *742:X 0.000146473
4 *13:8 0.000943342
5 *743:A *736:B 0
6 *743:A *738:A 9.01119e-05
7 *744:A *736:B 0
8 *744:A *740:D 0
9 *744:A *741:D 0
10 *744:A *745:A 0
11 *732:A *744:A 0
12 *741:RESET_B *743:A 0.000108002
13 *741:RESET_B *744:A 7.07908e-05
*RES
1 *742:X *13:8 15.9786 
2 *13:8 *743:A 19.0679 
3 *13:8 *744:A 24.9071 
*END

*D_NET *14 0.000636699
*CONN
*I *740:CLK I *D sky130_fd_sc_hd__dfrtp_1
*I *743:X O *D sky130_fd_sc_hd__clkbuf_16
*CAP
1 *740:CLK 0.000318349
2 *743:X 0.000318349
3 *741:RESET_B *740:CLK 0
*RES
1 *743:X *740:CLK 31.8321 
*END

*D_NET *15 0.000906832
*CONN
*I *741:CLK I *D sky130_fd_sc_hd__dfrtp_1
*I *744:X O *D sky130_fd_sc_hd__clkbuf_16
*CAP
1 *741:CLK 0.000371781
2 *744:X 0.000371781
3 *741:CLK *731:A 9.90367e-05
4 *741:CLK *734:B 6.42338e-05
5 *741:CLK *745:A 0
*RES
1 *744:X *741:CLK 35.0464 
*END

*D_NET *16 0.00825276
*CONN
*I *734:C I *D sky130_fd_sc_hd__nand3b_1
*I *736:A_N I *D sky130_fd_sc_hd__and3b_1
*I *735:A1 I *D sky130_fd_sc_hd__o21ai_1
*I *731:A I *D sky130_fd_sc_hd__clkbuf_1
*I *748:X O *D sky130_fd_sc_hd__buf_1
*CAP
1 *734:C 0
2 *736:A_N 0
3 *735:A1 0.000298109
4 *731:A 0.00091395
5 *748:X 0.00177652
6 *16:29 0.000626571
7 *16:21 0.000356618
8 *16:6 0.00271863
9 *731:A *734:A_N 1.34548e-05
10 *731:A *734:B 0.000573554
11 *731:A *25:8 0.00027704
12 *735:A1 *735:B1 2.56425e-05
13 *735:A1 *736:B 0.000112058
14 *735:A1 *738:A 0
15 *735:A1 *747:A 0.000204514
16 *16:6 *734:A_N 1.46231e-05
17 *16:21 *734:A_N 1.02132e-05
18 *16:21 *734:B 3.50166e-05
19 *16:29 *733:A 0
20 *16:29 *736:B 6.62783e-05
21 *16:29 *24:10 0
22 *16:29 *24:19 0
23 *737:A *16:29 0.000130934
24 *741:CLK *731:A 9.90367e-05
*RES
1 *748:X *16:6 36.1214 
2 *16:6 *731:A 27.2464 
3 *16:6 *16:21 0.732143 
4 *16:21 *16:29 15.0714 
5 *16:29 *735:A1 24.5679 
6 *16:29 *736:A_N 9.3 
7 *16:21 *734:C 9.3 
*END

*D_NET *17 0.00398934
*CONN
*I *738:A I *D sky130_fd_sc_hd__inv_2
*I *739:A I *D sky130_fd_sc_hd__inv_2
*I *749:X O *D sky130_fd_sc_hd__buf_1
*CAP
1 *738:A 0.000367142
2 *739:A 0
3 *749:X 0.00140755
4 *17:8 0.00177469
5 *735:A1 *738:A 0
6 *735:A2 *738:A 8.66299e-05
7 *740:RESET_B *738:A 0.000263214
8 *743:A *738:A 9.01119e-05
*RES
1 *749:X *17:8 40.0321 
2 *17:8 *739:A 13.8 
3 *17:8 *738:A 22.3714 
*END

*D_NET *18 0.0031746
*CONN
*I *750:A I *D sky130_fd_sc_hd__buf_2
*I *737:X O *D sky130_fd_sc_hd__clkbuf_1
*CAP
1 *750:A 0
2 *737:X 0.0015873
3 *18:12 0.0015873
4 *18:12 *733:A 0
*RES
1 *737:X *18:12 44.6036 
2 *18:12 *750:A 9.3 
*END

*D_NET *19 0.0013652
*CONN
*I *734:B I *D sky130_fd_sc_hd__nand3b_1
*I *745:X O *D sky130_fd_sc_hd__dlygate4sd3_1
*CAP
1 *734:B 0.000227084
2 *745:X 0.000227084
3 *734:B *734:A_N 6.85372e-05
4 *734:B *735:B1 4.88631e-05
5 *731:A *734:B 0.000573554
6 *735:A2 *734:B 6.42338e-05
7 *741:CLK *734:B 6.42338e-05
8 *746:A *734:B 5.65955e-05
9 *16:21 *734:B 3.50166e-05
*RES
1 *745:X *734:B 35.1357 
*END

*D_NET *20 0.000893421
*CONN
*I *735:B1 I *D sky130_fd_sc_hd__o21ai_1
*I *746:X O *D sky130_fd_sc_hd__dlygate4sd3_1
*CAP
1 *735:B1 0.000272801
2 *746:X 0.000272801
3 *735:B1 *736:B 0
4 *735:B1 *747:A 0.000125724
5 *735:B1 *24:10 0
6 *734:B *735:B1 4.88631e-05
7 *735:A1 *735:B1 2.56425e-05
8 *735:A2 *735:B1 0.00014759
*RES
1 *746:X *735:B1 33.0286 
*END

*D_NET *21 0.000471757
*CONN
*I *741:D I *D sky130_fd_sc_hd__dfrtp_1
*I *747:X O *D sky130_fd_sc_hd__dlygate4sd3_1
*CAP
1 *741:D 0.000180166
2 *747:X 0.000180166
3 *741:D *736:B 8.72387e-05
4 *741:D *745:A 2.41865e-05
5 *744:A *741:D 0
*RES
1 *747:X *741:D 30.2964 
*END

*D_NET *22 0.000971766
*CONN
*I *740:D I *D sky130_fd_sc_hd__dfrtp_1
*I *732:X O *D sky130_fd_sc_hd__clkbuf_1
*CAP
1 *740:D 0.000392417
2 *732:X 0.000392417
3 *732:A *740:D 0
4 *741:RESET_B *740:D 0.000186932
5 *744:A *740:D 0
*RES
1 *732:X *740:D 35.0464 
*END

*D_NET *23 0.000578175
*CONN
*I *747:A I *D sky130_fd_sc_hd__dlygate4sd3_1
*I *735:Y O *D sky130_fd_sc_hd__o21ai_1
*CAP
1 *747:A 8.8838e-05
2 *735:Y 8.8838e-05
3 *747:A *736:B 7.02611e-05
4 *735:A1 *747:A 0.000204514
5 *735:B1 *747:A 0.000125724
*RES
1 *735:Y *747:A 30.6 
*END

*D_NET *24 0.00290646
*CONN
*I *733:A I *D sky130_fd_sc_hd__inv_2
*I *734:A_N I *D sky130_fd_sc_hd__nand3b_1
*I *736:C I *D sky130_fd_sc_hd__and3b_1
*I *740:Q O *D sky130_fd_sc_hd__dfrtp_1
*CAP
1 *733:A 0.000343634
2 *734:A_N 0.000160656
3 *736:C 0
4 *740:Q 0.000634521
5 *24:19 0.000599981
6 *24:10 0.000730212
7 *731:A *734:A_N 1.34548e-05
8 *734:B *734:A_N 6.85372e-05
9 *735:A2 *733:A 0
10 *735:A2 *24:10 0
11 *735:A2 *24:19 0
12 *735:B1 *24:10 0
13 *737:A *24:10 0
14 *740:RESET_B *24:10 0.000274036
15 *746:A *734:A_N 5.65955e-05
16 *16:6 *734:A_N 1.46231e-05
17 *16:21 *734:A_N 1.02132e-05
18 *16:29 *733:A 0
19 *16:29 *24:10 0
20 *16:29 *24:19 0
21 *18:12 *733:A 0
*RES
1 *740:Q *24:10 23.0321 
2 *24:10 *736:C 13.8 
3 *24:10 *24:19 1.64286 
4 *24:19 *734:A_N 16.8179 
5 *24:19 *733:A 19.55 
*END

*D_NET *25 0.00330909
*CONN
*I *745:A I *D sky130_fd_sc_hd__dlygate4sd3_1
*I *736:B I *D sky130_fd_sc_hd__and3b_1
*I *741:Q O *D sky130_fd_sc_hd__dfrtp_1
*CAP
1 *745:A 0.000183574
2 *736:B 0.000615996
3 *741:Q 0.000536442
4 *25:8 0.00133601
5 *731:A *25:8 0.00027704
6 *735:A1 *736:B 0.000112058
7 *735:A2 *745:A 0
8 *735:B1 *736:B 0
9 *741:CLK *745:A 0
10 *741:D *736:B 8.72387e-05
11 *741:D *745:A 2.41865e-05
12 *743:A *736:B 0
13 *744:A *736:B 0
14 *744:A *745:A 0
15 *747:A *736:B 7.02611e-05
16 *16:29 *736:B 6.62783e-05
*RES
1 *741:Q *25:8 20.9071 
2 *25:8 *736:B 22.6393 
3 *25:8 *745:A 16.9607 
*END
